REMARK Flexibility Score: inf
REMARK Active torsions [ 5 ] -> [ 5 ]
ROOT
ATOM      1  C1  LIG L   1       5.170  17.738  -7.633  1.00  0.00     0.036 A 
ATOM      2  C2  LIG L   1       4.200  19.897  -8.199  1.00  0.00     0.124 A 
ATOM      3  C3  LIG L   1       5.300  19.145  -7.729  1.00  0.00     0.007 A 
ATOM      4  C4  LIG L   1       4.016  17.100  -7.990  1.00  0.00     0.050 A 
ATOM      5  C5  LIG L   1       2.958  19.261  -8.560  1.00  0.00     0.267 A 
ATOM      6  N1  LIG L   1       2.943  17.884  -8.429  1.00  0.00    -0.321 N 
ATOM      7  O1  LIG L   1       1.954  19.839  -8.975  1.00  0.00    -0.266 OA
ATOM      8  H1  LIG L   1       2.109  17.417  -8.664  1.00  0.00     0.169 HD
ENDROOT
BRANCH    2    9
ATOM      9  C6  LIG L   1       4.213  21.310  -8.296  1.00  0.00     0.105 C 
ATOM     10  N2  LIG L   1       4.151  22.450  -8.313  1.00  0.00    -0.191 NA
ENDBRANCH    2    9
BRANCH    3   11
ATOM     11  C7  LIG L   1       6.626  19.768  -7.402  1.00  0.00    -0.016 A 
ATOM     12  C8  LIG L   1       7.801  19.177  -7.869  1.00  0.00     0.009 A 
ATOM     13  C9  LIG L   1       6.743  20.911  -6.605  1.00  0.00     0.009 A 
ATOM     14 C10  LIG L   1       9.050  19.691  -7.567  1.00  0.00     0.016 A 
ATOM     15 C11  LIG L   1       8.013  21.433  -6.300  1.00  0.00     0.016 A 
ATOM     16 C12  LIG L   1       9.175  20.819  -6.784  1.00  0.00     0.063 A 
BRANCH   16   17
ATOM     17 C13  LIG L   1      10.544  21.337  -6.461  1.00  0.00     0.387 C 
ATOM     18  O2  LIG L   1      10.837  22.515  -6.393  1.00  0.00    -0.241 OA
ATOM     19  O3  LIG L   1      11.425  20.403  -6.259  1.00  0.00    -0.241 O 
ENDBRANCH   16   17
ENDBRANCH    3   11
BRANCH    4   20
ATOM     20 C14  LIG L   1       3.775  15.662  -7.783  1.00  0.00     0.002 A 
ATOM     21 C15  LIG L   1       2.611  15.050  -8.224  1.00  0.00     0.010 A 
ATOM     22 C16  LIG L   1       4.670  14.920  -7.007  1.00  0.00     0.055 A 
ATOM     23 C17  LIG L   1       2.361  13.716  -7.914  1.00  0.00     0.004 A 
ATOM     24 C18  LIG L   1       4.410  13.593  -6.710  1.00  0.00     0.121 A 
ATOM     25 C19  LIG L   1       3.250  12.990  -7.152  1.00  0.00     0.045 A 
BRANCH   24   26
ATOM     26  O4  LIG L   1       5.301  12.861  -5.944  1.00  0.00    -0.495 OA
ATOM     27 C20  LIG L   1       6.296  13.516  -5.163  1.00  0.00     0.277 C 
ENDBRANCH   24   26
ENDBRANCH    4   20
TORSDOF 5
