REMARK Flexibility Score: inf
REMARK Active torsions [ 7 ] -> [ 7 ]
ROOT
ATOM      1  C1  LIG L   1      -9.746  -9.104  58.006  1.00  0.00     0.109 C 
ENDROOT
BRANCH    1    2
ATOM      2  C2  LIG L   1     -11.208  -8.677  58.101  1.00  0.00     0.054 C 
BRANCH    2    3
ATOM      3  C3  LIG L   1     -11.492  -8.135  59.501  1.00  0.00    -0.046 A 
ATOM      4  C4  LIG L   1     -10.992  -8.796  60.617  1.00  0.00     0.007 A 
ATOM      5  C5  LIG L   1     -11.241  -8.297  61.889  1.00  0.00     0.045 A 
ATOM      6  C6  LIG L   1     -12.230  -6.969  59.657  1.00  0.00     0.007 A 
ATOM      7  C7  LIG L   1     -11.984  -7.133  62.045  1.00  0.00     0.117 A 
ATOM      8  C8  LIG L   1     -12.476  -6.469  60.928  1.00  0.00     0.045 A 
BRANCH    7    9
ATOM      9  O1  LIG L   1     -12.231  -6.638  63.286  1.00  0.00    -0.507 OA
ATOM     10  H1  LIG L   1     -11.901  -7.083  64.042  1.00  0.00     0.292 HD
ENDBRANCH    7    9
ENDBRANCH    2    3
ENDBRANCH    1    2
BRANCH    1   11
ATOM     11  N1  LIG L   1      -9.420  -9.544  56.644  1.00  0.00    -0.313 N 
ATOM     12  H2  LIG L   1      -9.539 -10.475  56.347  1.00  0.00     0.149 HD
BRANCH   11   13
ATOM     13  C9  LIG L   1      -8.953  -8.593  55.842  1.00  0.00     0.221 A 
ATOM     14  N2  LIG L   1      -8.585  -8.857  54.578  1.00  0.00    -0.177 NA
ATOM     15  N3  LIG L   1      -8.833  -7.359  56.358  1.00  0.00    -0.181 NA
ATOM     16 C10  LIG L   1      -8.104  -7.874  53.800  1.00  0.00     0.259 A 
ATOM     17 C11  LIG L   1      -8.365  -6.342  55.626  1.00  0.00     0.220 A 
ATOM     18  N4  LIG L   1      -7.981  -6.582  54.309  1.00  0.00    -0.164 N 
ATOM     19  N5  LIG L   1      -7.676  -7.829  52.544  1.00  0.00    -0.186 NA
ATOM     20  N6  LIG L   1      -7.525  -5.852  53.428  1.00  0.00    -0.137 NA
ATOM     21 C12  LIG L   1      -7.313  -6.565  52.320  1.00  0.00     0.219 A 
BRANCH   17   22
ATOM     22  N7  LIG L   1      -8.266  -5.125  56.156  1.00  0.00    -0.327 N 
ATOM     23  H3  LIG L   1      -8.541  -4.970  57.088  1.00  0.00     0.145 HD
ATOM     24  H4  LIG L   1      -7.917  -4.380  55.616  1.00  0.00     0.145 HD
ENDBRANCH   17   22
BRANCH   21   25
ATOM     25 C13  LIG L   1      -6.809  -6.054  51.131  1.00  0.00     0.173 A 
ATOM     26 C14  LIG L   1      -6.554  -6.688  49.991  1.00  0.00     0.053 A 
ATOM     27  O2  LIG L   1      -6.492  -4.739  50.984  1.00  0.00    -0.460 O 
ATOM     28 C15  LIG L   1      -6.081  -5.796  49.121  1.00  0.00     0.042 A 
ATOM     29 C16  LIG L   1      -6.034  -4.598  49.703  1.00  0.00     0.196 A 
ENDBRANCH   21   25
ENDBRANCH   11   13
ENDBRANCH    1   11
TORSDOF 7
