REMARK Flexibility Score: inf
REMARK Active torsions [ 8 ] -> [ 8 ]
ROOT
ATOM      1  C1  LIG L   1      14.124  33.645  88.264  1.00  0.00     0.126 A 
ATOM      2  C2  LIG L   1      15.391  33.719  88.896  1.00  0.00     0.047 A 
ATOM      3  N1  LIG L   1      12.954  33.963  88.911  1.00  0.00    -0.221 NA
ATOM      4  C3  LIG L   1      15.391  34.120  90.231  1.00  0.00     0.132 A 
ATOM      5  N2  LIG L   1      14.212  34.444  90.892  1.00  0.00    -0.220 NA
ATOM      6  C4  LIG L   1      13.041  34.352  90.201  1.00  0.00     0.225 A 
ENDROOT
BRANCH    4    7
ATOM      7  N3  LIG L   1      16.525  34.248  91.037  1.00  0.00    -0.299 N 
ATOM      8  H1  LIG L   1      17.382  34.082  90.582  1.00  0.00     0.154 HD
BRANCH    7    9
ATOM      9  C5  LIG L   1      16.625  34.574  92.382  1.00  0.00     0.033 A 
ATOM     10  N4  LIG L   1      16.731  35.493  96.434  1.00  0.00    -0.259 N 
ATOM     11  C6  LIG L   1      16.840  35.358  95.070  1.00  0.00     0.069 A 
ATOM     12  N5  LIG L   1      15.971  34.519  97.019  1.00  0.00    -0.178 NA
ATOM     13  C7  LIG L   1      16.075  34.221  94.756  1.00  0.00     0.021 A 
ATOM     14  C8  LIG L   1      17.514  36.129  94.076  1.00  0.00     0.030 A 
ATOM     15  C9  LIG L   1      15.585  33.760  95.994  1.00  0.00     0.143 A 
ATOM     16 C10  LIG L   1      15.965  33.817  93.403  1.00  0.00     0.034 A 
ATOM     17 C11  LIG L   1      17.390  35.712  92.735  1.00  0.00     0.025 A 
BRANCH   10   18
ATOM     18 C12  LIG L   1      17.323  36.558  97.260  1.00  0.00     0.179 C 
BRANCH   18   19
ATOM     19 C13  LIG L   1      16.419  37.808  97.209  1.00  0.00    -0.023 A 
ATOM     20 C14  LIG L   1      14.718  40.116  97.099  1.00  0.00     0.038 A 
ATOM     21 C15  LIG L   1      16.031  40.222  97.632  1.00  0.00     0.003 A 
ATOM     22 C16  LIG L   1      14.256  38.869  96.625  1.00  0.00     0.124 A 
ATOM     23 C17  LIG L   1      16.878  39.076  97.686  1.00  0.00     0.005 A 
ATOM     24 C18  LIG L   1      15.083  37.730  96.675  1.00  0.00     0.043 A 
ATOM     25  F1  LIG L   1      13.011  38.756  96.118  1.00  0.00    -0.205 F 
ENDBRANCH   18   19
ENDBRANCH   10   18
ENDBRANCH    7    9
ENDBRANCH    4    7
BRANCH    2   26
ATOM     26 C19  LIG L   1      16.644  33.395  88.186  1.00  0.00     0.140 C 
BRANCH   26   27
ATOM     27  N6  LIG L   1      16.900  32.290  87.559  1.00  0.00    -0.249 NA
ATOM     28  H2  LIG L   1      16.200  32.146  86.831  1.00  0.00     0.141 HD
BRANCH   27   29
ATOM     29  N7  LIG L   1      18.146  32.344  86.984  1.00  0.00    -0.243 NA
ATOM     30 C20  LIG L   1      18.127  31.934  85.537  1.00  0.00     0.102 C 
ATOM     31 C21  LIG L   1      19.167  31.524  87.740  1.00  0.00     0.102 C 
ATOM     32 C22  LIG L   1      19.509  31.997  84.858  1.00  0.00     0.017 C 
ATOM     33 C23  LIG L   1      20.573  31.596  87.112  1.00  0.00     0.017 C 
ATOM     34 C24  LIG L   1      20.554  31.190  85.635  1.00  0.00     0.003 C 
ENDBRANCH   27   29
ENDBRANCH   26   27
ENDBRANCH    2   26
BRANCH    1   35
ATOM     35  N8  LIG L   1      13.967  33.258  86.949  1.00  0.00    -0.343 N 
ATOM     36  H3  LIG L   1      14.754  33.013  86.411  1.00  0.00     0.144 HD
ATOM     37  H4  LIG L   1      13.068  33.227  86.549  1.00  0.00     0.144 HD
ENDBRANCH    1   35
TORSDOF 8
