# Name: AY7
# Created by ModelServer 0.9.6

# model_server_result.job_id: CFEnwpgUwoLDrsOeUWUHa3
# model_server_result.datetime_utc: 2021-08-29 20:57:56
# model_server_result.server_version: 0.9.6
# model_server_result.query_name: ligand
# model_server_result.source_id: pdb-bcif
# model_server_result.entry_id: 5mo4

# model_server_params.name: atom_site
# model_server_params.value: {"label_asym_id":"C","auth_seq_id":602}

# model_server_stats.io_time_ms: 11
# model_server_stats.parse_time_ms: 54
# model_server_stats.create_model_time_ms: 25
# model_server_stats.query_time_ms: 227
# model_server_stats.encode_time_ms: 1
# model_server_stats.element_count: 31

@<TRIPOS>MOLECULE
AY7
31 34 1
****
****

@<TRIPOS>ATOM
1 C1 -47.085 18.448 10.490 C.ar 1 AY7 0.000
2 C3 -48.863 16.779 10.850 C.3 1 AY7 0.000
3 C11 -47.052 19.533 9.577 C.ar 1 AY7 0.000
4 C12 -48.276 20.287 9.125 C.ar 1 AY7 0.000
5 C13 -43.364 19.712 8.765 C.2 1 AY7 0.000
6 C16 -42.239 21.741 7.780 C.ar 1 AY7 0.000
7 C17 -41.285 21.066 6.978 C.ar 1 AY7 0.000
8 C18 -40.355 21.795 6.230 C.ar 1 AY7 0.000
9 C19 -40.407 23.209 6.206 C.ar 1 AY7 0.000
10 C20 -41.390 23.893 6.955 C.ar 1 AY7 0.000
11 C21 -42.311 23.149 7.710 C.ar 1 AY7 0.000
12 C26 -50.249 20.838 8.260 C.ar 1 AY7 0.000
13 C27 -49.288 19.736 8.438 C.ar 1 AY7 0.000
14 C28 -39.657 24.022 3.979 C.3 1 AY7 0.000
15 N2 -48.217 18.043 11.122 N.pl3 1 AY7 0.000
16 C4 -49.185 16.375 12.308 C.3 1 AY7 0.000
17 C5 -49.565 17.710 13.005 C.3 1 AY7 0.000
18 C6 -48.870 18.820 12.175 C.3 1 AY7 0.000
19 N7 -45.924 17.816 10.837 N.ar 1 AY7 0.000
20 C8 -44.724 18.155 10.310 C.ar 1 AY7 0.000
21 C9 -44.639 19.224 9.398 C.ar 1 AY7 0.000
22 C10 -45.819 19.903 9.040 C.ar 1 AY7 0.000
23 N14 -43.270 21.044 8.473 N.am 1 AY7 0.000
24 O15 -42.476 18.880 8.607 O.2 1 AY7 0.000
25 O22 -39.480 23.885 5.401 O.3 1 AY7 0.000
26 O23 -50.233 15.388 12.327 O.3 1 AY7 0.000
27 N24 -48.541 21.544 9.382 N.ar 1 AY7 0.000
28 N25 -49.723 21.864 8.810 N.ar 1 AY7 0.000
29 F29 -38.568 24.718 3.547 F 1 AY7 0.000
30 F30 -39.676 22.817 3.372 F 1 AY7 0.000
31 CL -41.222 24.807 3.527 CL 1 AY7 0.000
@<TRIPOS>BOND
1 1 3 ar
2 1 19 ar
3 1 15 1
4 2 15 1
5 2 16 1
6 3 22 ar
7 3 4 1
8 4 13 ar
9 4 27 ar
10 5 23 1
11 5 24 2
12 5 21 1
13 6 7 ar
14 6 11 ar
15 6 23 1
16 7 8 ar
17 8 9 ar
18 9 25 1
19 9 10 ar
20 10 11 ar
21 12 13 ar
22 12 28 ar
23 14 30 1
24 14 31 1
25 14 29 1
26 14 25 1
27 15 18 1
28 16 26 1
29 16 17 1
30 17 18 1
31 19 20 ar
32 20 21 ar
33 21 22 ar
34 27 28 ar
@<TRIPOS>SUBSTRUCTURE
1 AY7 1
