REMARK Flexibility Score: inf
REMARK Active torsions [ 7 ] -> [ 7 ]
ROOT
ATOM      1  C1  LIG L   1     -43.364  19.712   8.765  1.00  0.00     0.250 C 
ATOM      2  N1  LIG L   1     -43.270  21.044   8.473  1.00  0.00    -0.281 N 
ATOM      3  O1  LIG L   1     -42.476  18.880   8.607  1.00  0.00    -0.270 OA
ATOM      4  H1  LIG L   1     -44.020  21.600   8.786  1.00  0.00     0.155 HD
ENDROOT
BRANCH    1    5
ATOM      5  C2  LIG L   1     -44.639  19.224   9.398  1.00  0.00     0.056 A 
ATOM      6  C3  LIG L   1     -47.085  18.448  10.490  1.00  0.00     0.131 A 
ATOM      7  C4  LIG L   1     -47.052  19.533   9.577  1.00  0.00     0.040 A 
ATOM      8  N2  LIG L   1     -45.924  17.816  10.837  1.00  0.00    -0.239 NA
ATOM      9  C5  LIG L   1     -45.819  19.903   9.040  1.00  0.00     0.028 A 
ATOM     10  C6  LIG L   1     -44.724  18.155  10.310  1.00  0.00     0.126 A 
BRANCH    6   11
ATOM     11  N3  LIG L   1     -48.217  18.043  11.122  1.00  0.00    -0.312 N 
ATOM     12  C7  LIG L   1     -48.863  16.779  10.850  1.00  0.00     0.137 C 
ATOM     13  C8  LIG L   1     -48.870  18.820  12.175  1.00  0.00     0.109 C 
ATOM     14  C9  LIG L   1     -49.185  16.375  12.308  1.00  0.00     0.133 C 
ATOM     15 C10  LIG L   1     -49.565  17.710  13.005  1.00  0.00     0.052 C 
BRANCH   14   16
ATOM     16  O2  LIG L   1     -50.233  15.388  12.327  1.00  0.00    -0.390 OA
ATOM     17  H2  LIG L   1     -51.016  15.739  11.875  1.00  0.00     0.210 HD
ENDBRANCH   14   16
ENDBRANCH    6   11
BRANCH    7   18
ATOM     18 C11  LIG L   1     -48.276  20.287   9.125  1.00  0.00     0.069 A 
ATOM     19 C12  LIG L   1     -49.288  19.736   8.438  1.00  0.00     0.049 A 
ATOM     20  N4  LIG L   1     -48.541  21.544   9.382  1.00  0.00    -0.277 N 
ATOM     21 C13  LIG L   1     -50.249  20.838   8.260  1.00  0.00     0.135 A 
ATOM     22  N5  LIG L   1     -49.723  21.864   8.810  1.00  0.00    -0.182 NA
ATOM     23  H3  LIG L   1     -47.973  22.155   9.905  1.00  0.00     0.189 HD
ENDBRANCH    7   18
ENDBRANCH    1    5
BRANCH    2   24
ATOM     24 C14  LIG L   1     -42.239  21.741   7.780  1.00  0.00     0.034 A 
ATOM     25 C15  LIG L   1     -41.285  21.066   6.978  1.00  0.00     0.027 A 
ATOM     26 C16  LIG L   1     -42.311  23.149   7.710  1.00  0.00     0.027 A 
ATOM     27 C17  LIG L   1     -40.355  21.795   6.230  1.00  0.00     0.048 A 
ATOM     28 C18  LIG L   1     -41.390  23.893   6.955  1.00  0.00     0.048 A 
ATOM     29 C19  LIG L   1     -40.407  23.209   6.206  1.00  0.00     0.129 A 
BRANCH   29   30
ATOM     30  O3  LIG L   1     -39.480  23.885   5.401  1.00  0.00    -0.420 OA
BRANCH   30   31
ATOM     31 C20  LIG L   1     -39.657  24.022   3.979  1.00  0.00     0.489 C 
ATOM     32  F1  LIG L   1     -39.676  22.817   3.372  1.00  0.00    -0.149 F 
ATOM     33 Cl1  LIG L   1     -41.222  24.807   3.527  1.00  0.00     0.000 Cl
ATOM     34  F2  LIG L   1     -38.568  24.718   3.547  1.00  0.00    -0.149 F 
ENDBRANCH   30   31
ENDBRANCH   29   30
ENDBRANCH    2   24
TORSDOF 7
