REMARK Flexibility Score: inf
REMARK Active torsions [ 7 ] -> [ 7 ]
ROOT
ATOM      1  C1  LIG L   1     -22.417  -3.670 -29.990  1.00  0.00    -0.008 A 
ATOM      2  C2  LIG L   1     -23.400  -2.714 -30.317  1.00  0.00     0.029 A 
ATOM      3  C3  LIG L   1     -23.661  -2.438 -31.677  1.00  0.00     0.045 A 
ATOM      4  C4  LIG L   1     -22.969  -3.115 -32.693  1.00  0.00     0.065 A 
ATOM      5  C5  LIG L   1     -21.993  -4.070 -32.363  1.00  0.00     0.122 A 
ATOM      6  C6  LIG L   1     -21.715  -4.347 -31.013  1.00  0.00     0.054 A 
ATOM      7 Cl1  LIG L   1     -24.901  -1.254 -32.129  1.00  0.00    -0.083 Cl
ENDROOT
BRANCH    1    8
ATOM      8  C7  LIG L   1     -22.143  -3.977 -28.517  1.00  0.00     0.048 A 
ATOM      9  C8  LIG L   1     -21.726  -4.561 -25.780  1.00  0.00     0.103 A 
ATOM     10  N1  LIG L   1     -20.628  -4.526 -26.700  1.00  0.00    -0.282 N 
ATOM     11  C9  LIG L   1     -23.052  -4.275 -26.239  1.00  0.00     0.001 A 
ATOM     12 C10  LIG L   1     -20.852  -4.242 -28.044  1.00  0.00     0.264 A 
ATOM     13 C11  LIG L   1     -23.249  -4.008 -27.644  1.00  0.00     0.024 A 
ATOM     14  O1  LIG L   1     -19.764  -4.242 -28.902  1.00  0.00    -0.267 OA
BRANCH   10   15
ATOM     15 C12  LIG L   1     -19.282  -4.785 -26.211  1.00  0.00     0.068 A 
ATOM     16 C13  LIG L   1     -18.328  -3.758 -26.261  1.00  0.00     0.137 A 
ATOM     17 C14  LIG L   1     -18.949  -6.039 -25.682  1.00  0.00     0.029 A 
ATOM     18  N2  LIG L   1     -17.033  -3.984 -25.791  1.00  0.00    -0.261 NA
ATOM     19 C15  LIG L   1     -17.645  -6.275 -25.218  1.00  0.00     0.022 A 
ATOM     20 C16  LIG L   1     -16.689  -5.246 -25.266  1.00  0.00     0.111 A 
ENDBRANCH   10   15
BRANCH   11   21
ATOM     21 C17  LIG L   1     -24.229  -4.346 -25.273  1.00  0.00     0.001 A 
ATOM     22 C18  LIG L   1     -25.374  -5.024 -25.721  1.00  0.00     0.010 A 
ATOM     23 C19  LIG L   1     -24.208  -3.817 -23.964  1.00  0.00     0.060 A 
ATOM     24 C20  LIG L   1     -26.493  -5.166 -24.894  1.00  0.00     0.001 A 
ATOM     25 C21  LIG L   1     -25.333  -3.958 -23.134  1.00  0.00     0.019 A 
ATOM     26 C22  LIG L   1     -26.471  -4.634 -23.601  1.00  0.00     0.001 A 
BRANCH   23   27
ATOM     27 C23  LIG L   1     -22.989  -3.079 -23.420  1.00  0.00     0.100 C 
ATOM     28  N3  LIG L   1     -22.074  -2.535 -23.027  1.00  0.00    -0.191 NA
ENDBRANCH   23   27
ENDBRANCH   11   21
ENDBRANCH    1    8
BRANCH    5   29
ATOM     29  O2  LIG L   1     -21.307  -4.714 -33.394  1.00  0.00    -0.492 OA
BRANCH   29   30
ATOM     30 C24  LIG L   1     -20.191  -5.464 -33.027  1.00  0.00     0.229 C 
BRANCH   30   31
ATOM     31 C25  LIG L   1     -19.551  -5.929 -34.330  1.00  0.00     0.038 C 
ATOM     32 C26  LIG L   1     -19.458  -4.722 -35.259  1.00  0.00     0.007 C 
ENDBRANCH   30   31
ENDBRANCH   29   30
ENDBRANCH    5   29
TORSDOF 7
